%chk=G:\gaussian-input\D-DNTAP.chk
# opt pm6

Title Card Required

0 1
 C                  1.78185601    0.14353800    0.11969525
 C                  2.19674691    1.59077788   -0.20428349
 C                 -0.11463910    2.23099409   -0.30437231
 C                 -0.52953004    0.78375419    0.01960643
 H                  2.27576339    1.71027944   -1.26464936
 H                 -1.47537470    0.57373399   -0.43445233
 N                  1.18479234    2.51952659    0.31942803
 N                  0.48242454   -0.14499453   -0.50410510
 H                  2.51844881   -0.53248994   -0.26150976
 H                 -0.03562258    2.35049569   -1.36473818
 N                  1.56196592    3.83519919    0.02490185
 N                  0.10525096   -1.46066714   -0.20957896
 O                  3.46081969    1.87145914    0.40254270
 O                  1.67625461   -0.01616974    1.53681974
 O                 -0.63513147    0.62404638    1.43673092
 O                 -1.09905752    3.13447072    0.20508851
 O                  2.76416115    4.10214075    0.60202301
 O                  0.00481884   -1.61255702    1.13817577
 O                  1.66239783    3.98708903   -1.32285292
 O                 -1.09694417   -1.72760874   -0.78670026
 C                 -2.36312998    2.85379029   -0.40173873
 C                  4.44523793    0.96798211   -0.10691775
 C                  1.29099992   -1.36003567    1.83765725
 C                 -1.61954984    1.52752291    1.94619212
 O                 -3.19894527    3.77910405   -0.57137904
 O                  5.64810806    1.32861272   -0.18827867
 O                  1.66213647   -1.89487933    2.91458365
 O                 -2.28177182    1.22334929    2.97211172
 C                 -1.86928030    2.87273862    1.23934745
 H                 -1.22680421    3.61965528    1.65676807
 H                 -1.66460465    2.76985070    0.19415757
 H                 -2.88994609    3.16337276    1.37599739
 C                 -2.70158802    1.41914208   -0.84764305
 H                 -1.80193208    0.90974154   -1.12337912
 H                 -3.17427400    0.89736585   -0.04190277
 H                 -3.36372035    1.45351782   -1.68746394
 C                  0.42192564   -2.15274833    0.84371732
 H                  1.05333001   -2.67718460    0.15728080
 H                 -0.18282359   -2.85432219    1.37941547
 H                 -0.20856681   -1.47751910    0.30386107
 C                  4.03333676   -0.44632429   -0.55600003
 H                  4.10445413   -1.11872401    0.27328945
 H                  3.02530459   -0.42732647   -0.91434369
 H                  4.68406050   -0.77558981   -1.33897052

