%chk=G:\gaussian-input\test-homo.chk
# opt b3lyp/6-31g(d) geom=connectivity

Title Card Required

0 1
 C                 -0.28601695   -0.16949152    0.00000000
 H                  0.07063748   -1.17830153    0.00000000
 H                  0.07065589    0.33490667    0.87365150
 H                  0.07065589    0.33490667   -0.87365150
 H                 -1.35601695   -0.16947834    0.00000000

 1 2 1.0 3 1.0 4 1.0 5 1.0
 2
 3
 4
 5

