4
Lattice="15.0 0.0 0.0 0.0 15.0 0.0 0.0 0.0 15.0" Properties=species:S:1:pos:R:3 pbc="T T T"
H        0.00000000       1.63145069       0.00000000
H       -0.94199962       0.00000000       0.00000000
H        0.94199962       0.00000000       0.00000000
C        0.00000000       0.54337708       0.00000000
